scratch/OLD/OpenDssDemo/example/ckt5_Losses.Txt

LOSSES REPORT

Power Delivery Element Loss Report

Element                  kW Losses    % of Power   kvar Losses

"Line.MDV201_CONNECTOR"                       0.00038,      0.0     0.00384226
"Line.MDV201_HN_1_275_A94744"                 0.00007,      0.0     -0.0105314
"Line.MDV201_HN_2_466_C62235"                 0.01142,     0.00     0.00617002
"Line.MDV201_DA_8_780_A1144234"               0.00076,      0.0     -0.0151762
"Line.MDV201_1160486ELB-1_SW"                 0.00005,      0.0     3.12379E-005
"Line.MDV201_1160486ELB"                      0.00000,      0.0     7.85339E-009
"Line.MDV201_HN_2P009_B1160473"               0.02466,     0.01     -0.0667836
"Line.MDV201_HN_2_088_ABC8164"                0.68354,     0.04     1.032
"Line.MDV201_HN_2_319_B39610"                 0.00005,      0.0     -0.00252313
"Line.MDV201_HN_2_417_A842"                   0.00788,     0.00     -0.00102203
"Line.MDV201_HN_2_941_B39760"                 0.00197,     0.00     -0.00639729
"Line.MDV201_1160480ELB-1_SW"                 0.00041,      0.0     0.000389665
"Line.MDV201_1160480ELB"                      0.00000,      0.0     6.2481E-008
"Line.C_1P034_SW"                             0.00012,      0.0     9.76266E-005
"Line.MDV201_8088ELB"                         0.00000,      0.0     1.80914E-008
"Line.MDV201_HN_2_499_ABC834"                 2.13288,     0.09     1.7246
"Line.MDV201_1160478ELB-1_SW"                 0.00022,      0.0     0.000202949
"Line.MDV201_1160478ELB"                      0.00000,      0.0     3.4024E-008
"Line.MDV201_HN_2_217_ABC8160"                0.24277,     0.01     0.369895
"Line.MDV201_HN_2_942_C89791"                 0.01392,     0.01     0.00313117
"Line.MDV201_99422FUSE"                       0.00001,      0.0     7.564E-005
"Line.MDV201_HN_2_140_ABC8124"                0.02495,     0.01     -0.00902302
"Line.MDV201_HN_2_818_ABC63707"               0.21003,     0.02     0.302422
"Line.MDV201_DA_8_731_C74450"                 0.00027,      0.0     -0.00612044
"Line.MDV201_100494FUSE"                      0.00000,      0.0     -0.000337773
"Line.MDV201_107110FUSE"                      0.00002,      0.0     0.000843756
"Line.MDV201_HN_2_477_C8121"                  0.00424,     0.00     -0.00381653
"Line.MDV201_HN_2_876_C63671"                 0.00786,     0.00     0.00168204
"Line.MDV201_HN_2_671_C89781"                 0.05920,     0.02     0.0556621
"Line.MDV201_DA_8_930_A39751"                 0.00281,     0.00     -0.00651713
"Line.MDV201_HN_2_394_ABC63658"               0.85878,     0.02     2.94255
"Line.MDV201_DA_8_687_B74448"                 0.03072,     0.02     0.0164136
"Line.MDV201_1012643FUSE"                     0.00000,      0.0     -0.000353061
"Line.MDV201_HN_1_238_A39569"                 0.00035,      0.0     -0.00849095
"Line.MDV201_14869FUSE"                       0.00001,      0.0     -8.79411E-005
"Line.MDV201_HN_1_156_C89790"                 0.00022,      0.0     -0.0127221
"Line.MDV201_HN_2_318_C28272"                 0.00017,      0.0     -0.00969034
"Line.MDV201_C_1_140_ABC69477"                0.00000,      0.0     -0.0687393
"Line.MDV201_HN_2_948_C8176"                  0.00031,      0.0     -0.00617494
"Line.MDV201_1144230FUSE"                     0.00000,      0.0     -0.000298461
"Line.MDV201_HN_2_105_ABC39582"               0.34286,     0.04     0.244937
"Line.MDV201_DA_8_691_B46386"                 0.01076,     0.01     0.00209077
"Line.MDV201_HN_2_457_C62244"                 0.00925,     0.00     0.00553056
"Line.C_1P038_SW"                             0.00046,      0.0     0.000443749
"Line.MDV201_8075ELB"                         0.00000,      0.0     7.0843E-008
"Line.C_1P032_SW"                             0.00001,      0.0     -1.1414E-005
"Line.MDV201_107997ELB"                       0.00000,      0.0     1.47266E-009
"Line.MDV201_HN_2_949_C8180"                  0.00014,      0.0     -0.00278467
"Line.MDV201_C_1P024_A8100"                   0.02756,     0.02     -0.151811
"Line.MDV201_HN_2_166_C33824"                 0.00282,     0.00     -0.0070226
"Line.MDV201_HN_2_827_A14873"                 0.00033,      0.0     -0.00537135
"Line.HN_2P017_SW"                            0.00000,      0.0     -1.92671E-005
"Line.MDV201_62249ELB"                        0.00000,      0.0     3.29704E-010
"Line.MDV201_HN_2_397_B63634"                 0.01426,     0.01     0.00328457
"Line.MDV201_C_1P037_A1160467"                0.00821,     0.00     -0.0511694
"Line.MDV201_HN_2_280_A8185"                  0.00008,      0.0     -0.00537258
"Line.MDV201_HN_2_794_ABC791"                 2.66048,     0.04     9.22922
"Line.MDV201_HN_2_677_C62303"                 0.00125,     0.00     -0.00701785
"Line.MDV201_100478FUSE"                      0.00000,      0.0     -0.000358919
"Line.MDV201_HN_2_115_ABC58446"               0.01591,     0.00     -0.00793978
"Line.MDV201_HN_2_895_B52515"                 0.00456,     0.00     0.000104094
"Line.MDV201_98795FUSE"                       0.00000,      0.0     -0.00153727
"Line.MDV201_HN_2_246_B39602"                 0.00185,     0.00     -0.00744397
"Line.MDV201_DA_8_149_ABC56778"               0.09062,     0.02     0.0829285
"Line.MDV201_HN_2_083_ABC62239"               0.12761,     0.00     0.180272
"Line.MDV201_DA_8_145_ABC46393"               0.00000,      0.0     -0.0431255
"Line.MDV201_HN_2_729_B28246"                 0.00005,      0.0     -0.00357012
"Line.MDV201_HN_2_954_B39771"                 0.00068,      0.0     -0.00600067
"Line.MDV201_108776FUSE"                      0.00000,      0.0     -0.000343455
"Line.HN_2P028_SW"                            0.00000,      0.0     -1.90882E-005
"Line.MDV201_795ELB"                          0.00000,      0.0     4.15917E-010
"Line.MDV201_1140227FUSE"                     0.00000,      0.0     -0.00034539
"Line.MDV201_HN_2_488_C8103"                  0.00293,     0.00     -0.00316525
"Line.MDV201_DA_8_917_A56768"                 0.05078,     0.02     0.0497848
"Line.MDV201_HN_2_029_ABC62262"               0.20262,     0.02     0.28888
"Line.MDV201_HN_2_955_B39752"                 0.00046,      0.0     -0.00624282
"Line.MDV201_DA_8_215_B1017348"               0.00359,     0.00     -0.0113834
"Line.MDV201_DA_8_678_A56764"                 0.00232,     0.00     -0.00610081
"Line.MDV201_HN_2_834_B39617"                 0.00234,     0.00     -0.00538146
"Line.MDV201_HN_2_906_A39580"                 0.00010,      0.0     -0.00254507
"Line.MDV201_DA_8_734_C74440"                 0.00258,     0.00     -0.0029207
"Line.MDV201_DA_8_157_ABC58429"               0.02995,     0.01     0.0308956
"Line.MDV201_HN_2_605_A21655"                 0.01939,     0.02     0.00473304
"Line.MDV201_HN_2_636_AC28249"                0.05114,     0.02     0.0345784
"Line.MDV201_HN_2_705_ABC52524"               0.14282,     0.02     0.223144
"Line.MDV201_DA_8_928_A39733"                 0.01468,     0.01     0.00544566
"Line.MDV201_HN_2_383_ABC8113"                0.02495,     0.01     -0.00902927
"Line.MDV201_HN_2_803_B837"                   0.03148,     0.02     0.025954
"Line.SW-HN_2_793_SW"                         0.38423,     0.00     0.384009
"Line.MDV201_796USD"                          0.00008,      0.0     0.275808
"Line.MDV201_HN_1_332_C28263"                 0.00002,      0.0     -0.00583122
"Line.MDV201_HN_2_890_B52521"                 0.00168,     0.00     -0.00809857
"Line.MDV201_HN_2_377_ABC28196"               0.00008,      0.0     -0.0353044
"Line.MDV201_HN_1_331_C28262"                 0.00004,      0.0     -0.00874698
"Line.MDV201_HN_2_628_C52531"                 0.00074,      0.0     -0.00770588
"Line.MDV201_HN_2_964_A14870"                 0.02152,     0.02     0.00468188
"Line.MDV201_DA_8_200_C46399"                 0.04579,     0.02     0.0197644
"Line.MDV201_106895FUSE"                      0.00000,      0.0     -0.000350758
"Line.HN_2P054_SW"                            0.00000,      0.0     -2.12985E-005
"Line.MDV201_1163443ELB"                      0.00000,      0.0     0
"Line.MDV201_DA_8_142_ABC6584"                0.18735,     0.02     0.25685
"Line.MDV201_1144249FUSE"                     0.00001,      0.0     2.15424E-005
"Line.MDV201_HN_2_965_A63726"                 0.01293,     0.01     -1.7615E-005
"Line.MDV201_C_1_410_A8131"                   0.00153,     0.00     -0.0063279
"Line.MDV201_HN_2_463_C62234"                 0.00571,     0.00     -0.000842144
"Line.MDV201_HN_2_133_ABC8083"                0.70585,     0.04     0.611613
"Line.MDV201_HN_2_840_B52518"                 0.08407,     0.03     0.0812372
"Line.MDV201_HN_2_808_ABC783"                 2.56230,     0.04     8.93043
"Line.MDV201_HN_2_608_A8133"                  0.00001,      0.0     -0.0052354
"Line.MDV201_C_1P032_1160490"                 0.00000,      0.0     6.93889E-021
"Line.MDV201_HN_2_077_C28274"                 0.00027,      0.0     -0.00977537
"Line.MDV201_HN_2_711_A63676"                 0.00074,      0.0     -0.00432252
"Line.MDV201_HN_2_923_C28266"                 0.00003,      0.0     -0.00381766
"Line.MDV201_HN_21041_C39773"                 0.00008,      0.0     -0.012357
"Line.MDV201_HN_2_644_A28238"                 0.00859,     0.00     0.00138083
"Line.MDV201_1144260FUSE"                     0.00006,      0.0     0.00254583
"Line.MDV201_HN_2_539_C8098"                  0.00069,      0.0     -0.00519205
"Line.MDV201_HN_2_800_B850"                   0.00942,     0.00     0.00376142
"Line.MDV201_HN_2_092_ABC63711"               0.99234,     0.05     1.50744
"Line.MDV201_HN_2P014_B1160485"               0.00295,     0.00     -0.0529465
"Line.MDV201_C_1_412_A8128"                   0.00091,     0.00     -0.00499678
"Line.MDV201_HN_2_533_A8117"                  0.00032,      0.0     -0.00638077
"Line.MDV201_HN_2_970_A63710"                 0.00047,      0.0     -0.00594877
"Line.MDV201_C_1_400_A21653"                  0.01185,     0.01     0.00100751
"Line.MDV201_HN_2_124_C63703"                 0.00270,     0.01     -0.0136445
"Line.MDV201_106254FUSE"                      0.00000,      0.0     -0.000347149
"Line.MDV201_HN_1_380_C1012407"               0.00030,      0.0     -0.00552442
"Line.MDV201_HN_2_381_ABC1010731"             0.03976,     0.01     0.00388557
"Line.MDV201_DA_8_732_C74453"                 0.00801,     0.01     -0.00199767
"Line.MDV201_DA_8_144_ABC6582"                0.08763,     0.00     0.121291
"Line.MDV201_HN_1_147_C1012412"               0.00050,      0.0     -0.00754802
"Line.MDV201_HN_2_846_B69620"                 0.03417,     0.02     0.0292956
"Line.MDV201_HN_2_814_ABC14891"               1.10769,     0.05     1.67804
"Line.MDV201_DA_8_868_B1103250"               0.00000,      0.0     -0.00597316
"Line.MDV201_1017350FUSE"                     0.00000,      0.0     -0.000291881
"Line.MDV201_HN_2_719_C14872"                 0.00088,      0.0     -0.0029941
"Line.MDV201_HN_2_930_B62301"                 0.00006,      0.0     -0.00992295
"Line.MDV201_HN_2_407_B809"                   0.02448,     0.02     0.0104513
"Line.MDV201_HN_2_650_A28242"                 0.00065,      0.0     -0.00715666
"Line.MDV201_DA_8_492_ABC74428"               0.04025,     0.00     0.0341115
"Line.MDV201_HN_2_151_C14833"                 0.04572,     0.04     0.0105055
"Line.MDV201_HN_2_641_AC14893"                0.03605,     0.02     0.0240321
"Line.MDV201_DA_8_203_C46407"                 0.08485,     0.05     0.0344434
"Line.MDV201_HN_1_172_A94737"                 0.00010,      0.0     -0.00846634
"Line.MDV201_HN_1_165_C89780"                 0.00035,      0.0     -0.00824557
"Line.MDV201_HN_2_127_C63708"                 0.00218,     0.00     -0.00589612
"Line.MDV201_PB_0928_A1000987"                0.00002,      0.0     -0.0976927
"Line.MDV201_HN_2_128_ABC28288"               0.01813,     0.01     -0.0172012
"Line.SW-HN_2_381_SW"                         0.00092,     0.00     0.000710317
"Line.MDV201_1010732USD"                      0.00001,      0.0     -0.000701167
"Line.MDV201_1144262FUSE"                     0.00001,      0.0     -3.69344E-005
"Line.MDV201_C_1_138_ABC1127424"              0.00000,      0.0     -0.059031
"Line.MDV201_DA_8_234_ABC56762"               0.10435,     0.01     0.126368
"Line.MDV201_1144253FUSE"                     0.00000,      0.0     -0.000328405
"Line.MDV201_HN_2_120_A28281"                 0.00260,     0.00     -0.00634072
"Line.MDV201_HN_1_274_A94747"                 0.00000,      0.0     -0.0065033
"Line.MDV201_HN_2_852_B39588"                 0.00362,     0.00     -0.00413839
"Line.MDV201_HN_2_820_B39623"                 0.00386,     0.00     -0.00577578
"Line.MDV201_C_1_506_A8143"                   0.02132,     0.01     0.0123634
"Line.MDV201_DA_8_216_B1017349"               0.00083,      0.0     -0.00750944
"Line.MDV201_HN_2_291_ABC63681"               0.18616,     0.01     0.370958
"Line.MDV201_106259FUSE"                      0.00002,      0.0     0.000820584
"Line.MDV201_HN_2_382_ABC823"                 0.02070,     0.00     0.00184737
"Line.MDV201_HN_2_821_B39618"                 0.00095,     0.00     -0.00662897
"Line.MDV201_HN_2_927_C94731"                 0.00019,      0.0     -0.00895063
"Line.MDV201_HN_2_235_ABC854"                 0.00005,      0.0     -0.0314179
"Line.MDV201_HN_2_306_ABC28286"               0.01180,     0.00     -0.00827289
"Line.MDV201_C_1_411_A8127"                   0.00120,     0.00     -0.00661412
"Line.MDV201_HN_2_520_A8092"                  0.01614,     0.02     0.00316655
"Line.MDV201_HN_2_420_A814"                   0.00897,     0.00     0.00253377
"Line.MDV201_HN_2_153_B14829"                 0.74174,     0.12     0.379717
"Line.MDV201_HN_2_870_C831"                   0.03315,     0.02     0.0276457
"Line.MDV201_C_1_354_B1008227"                0.00009,      0.0     -0.00780066
"Line.MDV201_HN_21036_ABC28186"               0.00006,      0.0     -0.0367903
"Line.MDV201_DA_8_139_B56756"                 0.00081,      0.0     -0.0148826
"Line.MDV201_HN_2_422_A790"                   0.02283,     0.02     0.0101763
"Line.HN_2P011_SW"                            0.00041,      0.0     0.000389915
"Line.MDV201_15005ELB"                        0.00000,      0.0     6.25185E-008
"Line.MDV201_1149717FUSE"                     0.00000,      0.0     -0.00151135
"Line.MDV201_DA_8_218_B8204"                  0.00006,      0.0     -0.00682401
"Line.MDV201_HN_2_387_B804"                   0.00124,     0.00     -0.0062047
"Line.MDV201_HN_2_859_B94734"                 0.00006,      0.0     -0.00707621
"Line.MDV201_HN_2_830_A14875"                 0.00002,      0.0     -0.00434153
"Line.MDV201_1012406FUSE"                     0.00000,      0.0     -0.000280416
"Line.MDV201_HN_2_186_ABC15011"               0.34179,     0.03     0.483497
"Line.MDV201_HN_2_522_C855"                   0.01643,     0.02     0.0016514
"Line.MDV201_108027FUSE"                      0.00000,      0.0     -0.000352223
"Line.MDV201_1010727FUSE"                     0.00001,      0.0     0.000220532
"Line.MDV201_HN_2_831_ABC39762"               0.00000,      0.0     -0.00803475
"Line.MDV201_1145433FUSE"                     0.00000,      0.0     -0.000352818
"Line.MDV201_HN_2_540_C8108"                  0.00019,      0.0     -0.00433706
"Line.MDV201_HN_2_653_A14878"                 0.00020,      0.0     -0.00750338
"Line.MDV201_C_1_083_B69488"                  0.00029,      0.0     -0.00360371
"Line.MDV201_HN_2P016_B1160487"               0.00094,     0.00     -0.115403
"Line.MDV201_HN_2_223_B8168"                  0.00019,      0.0     -0.0116586
"Line.MDV201_1163441ELB-1_SW"                 0.00000,      0.0     -2.12948E-005
"Line.MDV201_1163441ELB"                      0.00000,      0.0     2.80238E-014
"Line.MDV201_HN_2_731_B14852"                 0.00004,      0.0     -0.0125596
"Line.C_1P035_SW"                             0.00023,      0.0     0.00020641
"Line.MDV201_8082ELB"                         0.00000,      0.0     3.46703E-008
"Line.MDV201_HN_2_064_C14871"                 0.00145,     0.00     -0.00480157
"Line.MDV201_HN_2_878_B1144266"               0.00174,     0.00     -0.00306599
"Line.MDV201_HN_2_149_C28298"                 0.01037,     0.02     -0.00686331
"Line.MDV201_HN_1_177_C69626"                 0.00004,      0.0     -0.00244913
"Line.MDV201_DA_8_809_C46402"                 0.00008,      0.0     -0.00922219
"Line.MDV201_1144263FUSE"                     0.00000,      0.0     -0.000272066
"Line.MDV201_HN_2_868_C833"                   0.06291,     0.03     0.0575049
"Line.MDV201_HN_2_836_B39616"                 0.00023,      0.0     -0.00521395
"Line.MDV201_103731FUSE"                      0.00000,      0.0     -0.000297604
"Line.MDV201_C_1P031_A1160501"                0.00010,      0.0     -0.0814508
"Line.MDV201_HN_2_404_B799"                   0.00003,      0.0     -0.0035365
"Line.MDV201_HN_2_121_C28294"                 0.00024,      0.0     -0.00591884
"Line.MDV201_C_1_389_A1000986"                0.00453,     0.00     -0.00214216
"Line.MDV201_HN_2_491_C8114"                  0.00160,     0.00     -0.00744709
"Line.MDV201_HN_2_837_B39584"                 0.06863,     0.02     0.0679106
"Line.MDV201_DA_8_150_ABC56781"               0.07221,     0.01     0.063749
"Line.MDV201_C_1P026_A1160505"                0.00088,      0.0     -0.0710254
"Line.MDV201_HN_2_659_C62237"                 0.13778,     0.04     0.138423
"Line.MDV201_HN_2_893_A39590"                 0.01375,     0.02     0.00080329
"Line.HN_2P009_SW"                            0.00072,      0.0     0.000702027
"Line.MDV201_15008ELB"                        0.00000,      0.0     1.10086E-007
"Line.MDV201_HN_2_173_B39600"                 0.00000,      0.0     -0.00791956
"Line.MDV201_HN_2_220_B44580"                 0.00099,     0.00     -0.0102695
"Line.MDV201_HN_2_630_C28228"                 0.00247,     0.00     -0.00503493
"Line.MDV201_HN_2_427_B826"                   0.00024,      0.0     -0.00847509
"Line.MDV201_C_1P032_A69460"                  0.00037,      0.0     -0.0911603
"Line.MDV201_HN_2_350_ABC52517"               0.04917,     0.01     0.017856
"Line.MDV201_HN_2_796_ABC782"                 3.03931,     0.04     10.5929
"Line.MDV201_HN_1_174_A94742"                 0.00012,      0.0     -0.00971277
"Line.MDV201_HN_2_084_B38389"                 0.00012,      0.0     -0.0117541
"Line.MDV201_HN_2_875_C63670"                 0.00001,      0.0     -0.00424545
"Line.MDV201_1160504ELB-1_SW"                 0.00003,      0.0     7.86111E-006
"Line.MDV201_1160504ELB"                      0.00000,      0.0     4.41955E-009
"Line.MDV201_HN_2P028_A1160489"               0.00018,      0.0     -0.163543
"Line.MDV201_HN_2_622_C28223"                 0.00716,     0.00     -0.0011747
"Line.MDV201_HN_2_842_B94740"                 0.06820,     0.03     0.063522
"Line.MDV201_C_1_066_ABC8078"                 0.36059,     0.03     0.285866
"Line.MDV201_HN_1_173_A94739"                 0.00012,      0.0     -0.00959983
"Line.MDV201_HN_1_150_C1012408"               0.00015,      0.0     -0.00226497
"Line.MDV201_C_1P022_A1160458"                0.02617,     0.01     -0.0636808
"Line.MDV201_106884FUSE"                      0.00001,      0.0     9.42757E-005
"Line.MDV201_1144243FUSE"                     0.00000,      0.0     -0.00027328
"Line.MDV201_HN_2_843_B69621"                 0.05738,     0.02     0.0523838
"Line.MDV201_1160472ELB-1_SW"                 0.00092,     0.00     0.000901403
"Line.MDV201_1160472ELB"                      0.00000,      0.0     1.40472E-007
"Line.MDV201_HN_2_356_C28301"                 0.00079,      0.0     -0.00555521
"Line.MDV201_HN_2_666_C62312"                 0.00029,      0.0     -0.00822276
"Line.MDV201_HN_2_802_B836"                   0.03244,     0.02     0.0277706
"Line.MDV201_HN_1_210_A28279"                 0.00083,      0.0     -0.00486354
"Line.MDV201_HN_2_616_ABC28226"               0.12323,     0.00     0.244011
"Line.MDV201_HN_2_212_C14834"                 0.02783,     0.03     0.00393586
"Line.MDV201_HN_1_154_C89826"                 0.00015,      0.0     -0.00852479
"Line.MDV201_HN_2_393_ABC63659"               1.21219,     0.02     4.15377
"Line.MDV201_HN_2_911_C44579"                 0.00000,      0.0     -0.0105655
"Line.MDV201_HN_2_030_ABC62265"               0.18430,     0.02     0.262008
"Line.MDV201_HN_2_638_C28237"                 0.00007,      0.0     -0.00732493
"Line.MDV201_DA_8_946_B56776"                 0.00017,      0.0     -0.00753697
"Line.MDV201_HN_2_352_ABC69623"               0.05203,     0.02     0.0193536
"Line.MDV201_HN_2_793_ABC1023346_SW"          0.38423,     0.00     0.384007
"Line.MDV201_HN_2_793_ABC1023346"             2.03607,     0.03     7.06311
"Line.MDV201_108774FUSE"                      0.00000,      0.0     -0.000346551
"Line.MDV201_DA_8_786_B1144236"               0.09661,     0.05     0.0398294
"Line.MDV201_HN_2_492_C8123"                  0.00086,      0.0     -0.00790194
"Line.MDV201_HN_2_848_B14854"                 0.03050,     0.02     0.0247269
"Line.HN_2P014_SW"                            0.00012,      0.0     0.000103088
"Line.MDV201_39754ELB"                        0.00000,      0.0     1.88042E-008
"Line.MDV201_1023343FUSE"                     0.00000,      0.0     -0.000345457
"Line.MDV201_HN_2P026_A1010728"               0.00006,      0.0     -0.0582611
"Line.MDV201_HN_2_535_C8140"                  0.00569,     0.00     -0.00359698
"Line.MDV201_106883FUSE"                      0.00007,      0.0     0.00339951
"Line.MDV201_HN_2_408_ABC63655"               2.59150,     0.04     8.96459
"Line.MDV201_HN_2_849_B94730"                 0.01496,     0.01     0.0079734
"Line.MDV201_104355FUSE"                      0.00000,      0.0     -0.000332671
"Line.MDV201_DA_8_053_A63763"                 0.00000,      0.0     -0.0109418
"Line.MDV201_HN_21040_C39772"                 0.00002,      0.0     -0.0033663
"Line.MDV201_HN_2_672_C62308"                 0.00155,     0.00     -0.00546743
"Line.MDV201_HN_2_643_A28241"                 0.01343,     0.01     0.00488896
"Line.MDV201_DA_8_204_C46404"                 0.03222,     0.02     0.0122549
"Line.MDV201_HN_1_178_C69653"                 0.00049,      0.0     -0.00980267
"Line.MDV201_HN_2_360_ABC8165"                0.19533,     0.01     0.293587
"Line.MDV201_HN_2_606_A8132"                  0.00026,      0.0     -0.00518135
"Line.MDV201_HN_2_810_ABC63685"               3.28467,     0.05     11.4483
"Line.MDV201_HN_2_602_A8151"                  0.00845,     0.00     0.00368115
"Line.MDV201_HN_2_147_C14840"                 0.00100,     0.00     -0.00661867
"Line.MDV201_HN_2_461_C62251"                 0.00135,     0.00     -0.00514153
"Line.MDV201_HN_2_527_C8153"                  0.00085,      0.0     -0.00814793
"Line.MDV201_HN_2_635_AC63666"                0.08558,     0.02     0.0620552
"Line.MDV201_C_1P032_A1160490"                0.00000,      0.0     -0.109734
"Line.MDV201_1011953FUSE"                     0.00000,      0.0     -0.00153642
"Line.MDV201_HN_1_450_B52513"                 0.00183,     0.00     -0.00387446
"Line.MDV201_HN_2_062_C28277"                 0.00003,      0.0     -0.00620958
"Line.MDV201_HN_2_854_B39586"                 0.00076,      0.0     -0.00507498
"Line.MDV201_HN_2_458_B39599"                 0.00015,      0.0     -0.00752913
"Line.MDV201_C_1P034_A1160492"                0.00636,     0.00     -0.12357
"Line.MDV201_1160484ELB-1_SW"                 0.00012,      0.0     0.000103032
"Line.MDV201_1160484ELB"                      0.00000,      0.0     1.87953E-008
"Line.MDV201_C_1_124_ABC69481"                0.00356,     0.00     -0.0565012
"Line.MDV201_1160461ELB-1_SW"                 0.00040,      0.0     0.000376307
"Line.MDV201_1160461ELB"                      0.00000,      0.0     6.05728E-008
"Line.MDV201_106882FUSE"                      0.00000,      0.0     -0.000351453
"Line.MDV201_HN_2_410_A819"                   0.00058,      0.0     -0.00614788
"Line.MDV201_HN_2_336_B8196"                  0.00034,      0.0     -0.00854902
"Line.MDV201_HN_2_678_C62304"                 0.00040,      0.0     -0.00795897
"Line.MDV201_HN_2_649_A28248"                 0.00242,     0.00     -0.0048468
"Line.MDV201_C_1_267_ABC8074"                 0.52981,     0.04     0.430985
"Line.MDV201_HN_2_067_ABC14836"               0.36850,     0.05     0.545604
"Line.MDV201_HN_2_031_ABC62264"               0.17524,     0.02     0.248113
"Line.MDV201_HN_2_816_ABC14879"               0.24762,     0.03     0.353633
"Line.MDV201_HN_1_401_A39574"                 0.00001,      0.0     -0.0142989
"Line.MDV201_HN_2_537_C8094"                  0.00479,     0.00     -0.00421254
"Line.MDV201_HN_2_915_ABC39576"               0.05666,     0.01     0.0209349
"Line.MDV201_HN_1_166_A39571"                 0.00582,     0.02     -0.0104391
"Line.MDV201_HN_2_229_ABC8126"                0.02308,     0.01     -0.0114466
"Line.MDV201_C_1_069_ABC69484"                0.08576,     0.00     0.227285
"Line.MDV201_102184FUSE"                      0.00000,      0.0     -0.000350948
"Line.HN_2P012_SW"                            0.00022,      0.0     0.000203058
"Line.MDV201_39759ELB"                        0.00000,      0.0     3.40396E-008
"Line.MDV201_HN_2_531_C857"                   0.00257,     0.00     -0.00123979
"Line.MDV201_HN_2_861_C39629"                 0.00049,      0.0     -0.00685627
"Line.MDV201_1144254FUSE"                     0.00000,      0.0     -0.000352
"Line.MDV201_HN_2_487_C8099"                  0.00654,     0.00     -0.00341077
"Line.MDV201_HN_2_489_C8104"                  0.00333,     0.00     -0.00460717
"Line.MDV201_HN_1_455_A94736"                 0.00003,      0.0     -0.00230563
"Line.MDV201_DA_8_674_A6597"                  0.02040,     0.02     0.00734202
"Line.MDV201_DA_8_918_A56770"                 0.07424,     0.02     0.0727307
"Line.MDV201_HN_2_068_ABC14845"               0.19973,     0.03     0.325795
"Line.MDV201_HN_2_706_C52532"                 0.03955,     0.02     0.0306369
"Line.MDV201_HN_2_655_A14863"                 0.00095,     0.00     -0.00877678
"Line.MDV201_1000983FUSE"                     0.00005,      0.0     0.00209303
"Line.MDV201_HN_2_117_ABC28284"               0.01765,     0.00     -0.00886677
"Line.MDV201_DA_8_936_ABC67891"               0.00000,      0.0     -0.0445479
"Line.MDV201_HN_2_937_B14993"                 0.01212,     0.01     0.00253664
"Line.MDV201_DA_8_697_B46390"                 0.00067,      0.0     -0.00872775
"Line.MDV201_HN_2_656_A14864"                 0.00173,     0.00     -0.00963353
"Line.MDV201_HN_2_813_ABC63654"               1.04437,     0.05     1.58204
"Line.MDV201_HN_2_428_B812"                   0.00982,     0.01     1.25965E-005
"Line.MDV201_HN_2_228_ABC810"                 0.52457,     0.02     1.1482
"Line.MDV201_100479FUSE"                      0.00000,      0.0     -0.000282832
"Line.MDV201_DA_8_729_C74452"                 0.00150,     0.00     -0.00562755
"Line.HN_2P010_SW"                            0.00051,      0.0     0.000492916
"Line.MDV201_15004ELB"                        0.00000,      0.0     7.82164E-008
"Line.MDV201_C_1_403_A21649"                  0.00348,     0.00     -0.00115621
"Line.MDV201_HN_2_722_C52525"                 0.00003,      0.0     -0.00425404
"Line.MDV201_106261FUSE"                      0.00001,      0.0     7.10763E-005
"Line.MDV201_C_1_407_A8136"                   0.00115,     0.00     -0.00415172
"Line.MDV201_HN_2_872_C63667"                 0.01609,     0.01     0.0104469
"Line.MDV201_100475FUSE"                      0.00000,      0.0     -0.000357909
"Line.MDV201_DA_8_727_C39744"                 0.02606,     0.02     0.0107284
"Line.MDV201_DA_8_257_ABC88677"               0.00000,      0.0     -0.0360559
"Line.MDV201_103730FUSE"                      0.00000,      0.0     -0.000340095
"Line.MDV201_1160476ELB-1_SW"                 0.00072,      0.0     0.000701824
"Line.MDV201_1160476ELB"                      0.00000,      0.0     1.10055E-007
"Line.MDV201_HN_2_712_A63678"                 0.00083,      0.0     -0.00606509
"Line.MDV201_HN_2_661_C62248"                 0.00024,      0.0     -0.00645773
"Line.MDV201_HN_2_924_C28267"                 0.00008,      0.0     -0.0107888
"Line.MDV201_1144244FUSE"                     0.00000,      0.0     -0.000342527
"Line.MDV201_HN_2_465_C62233"                 0.01057,     0.00     0.00390112
"Line.MDV201_HN_2_943_C89813"                 0.00466,     0.00     -5.82641E-005
"Line.MDV201_DA_8_971_C46408"                 0.00001,      0.0     -0.00118736
"Line.MDV201_HN_2_663_C62247"                 0.07838,     0.02     0.0776568
"Line.MDV201_HN_2_934_B15006"                 0.05527,     0.03     0.0319555
"Line.MDV201_HN_1_170_A94727"                 0.00030,      0.0     -0.00726081
"Line.MDV201_HN_2_085_ABC38388"               0.25933,     0.02     0.391323
"Line.MDV201_HN_2_877_C63672"                 0.00559,     0.00     -0.00112079
"Line.C_1P037_SW"                             0.00035,      0.0     0.000332516
"Line.MDV201_8076ELB"                         0.00000,      0.0     5.389E-008
"Line.MDV201_1149715FUSE"                     0.00000,      0.0     -0.00034239
"Line.MDV201_HN_2_609_C28278"                 0.00000,      0.0     -0.00614645
"Line.MDV201_HN_2_624_C14866"                 0.00137,     0.00     -0.00777617
"Line.MDV201_DA_8_158_C58433"                 0.02480,     0.01     0.0111184
"Line.MDV201_1000988FUSE"                     0.00000,      0.0     -0.000348613
"Line.MDV201_HN_2_760_ABC28208"               0.00002,      0.0     -0.0211832
"Line.MDV201_C_1P029_A1160456"                0.00231,     0.00     -0.0776709
"Line.MDV201_DA_8_920_A56783"                 0.00121,     0.00     -0.00906108
"Line.MDV201_1010740FUSE"                     0.00000,      0.0     2.5887E-010
"Line.MDV201_HN_2_183_ABC62261"               0.00008,      0.0     -0.0294529
...