scratch/OLD/OpenDssDemo/example/ckt5_Overload.Txt

Power Delivery Element Overload Report

SYMMETRICAL COMPONENT CURRENTS BY CIRCUIT ELEMENT 

Element                      Term    I1      I2    %I2/I1    I0    %I0/I1 %Normal   %Emergency

"Transformer.MDV201_HN_2_632_C28235-1C"      1     4.1     0.0     0.0     0.0     0.0   107.0    78.5
"Transformer.MDV201_HN_2_082_ABC62250-1B"    1     4.2     0.0     0.0     0.0     0.0   110.7    81.2
"Transformer.MDV201_39754ELB-1B"             1     3.9     0.0     0.0     0.0     0.0   102.9    75.4
"Transformer.MDV201_HN_2_833_B39620-1B"      1     4.0     0.0     0.0     0.0     0.0   104.0    76.3
"Transformer.MDV201_HN_2_628_C52531-1C"      1     4.2     0.0     0.0     0.0     0.0   108.9    79.9
"Transformer.MDV201_HN_2_672_C62308-1C"      1     5.5     0.0     0.0     0.0     0.0   144.5   105.9
"Transformer.MDV201_HN_2_869_C830-1C"        1     4.5     0.0     0.0     0.0     0.0   116.8    85.7
"Transformer.MDV201_HN_2_953_B14996-1B"      1     4.0     0.0     0.0     0.0     0.0   106.0    77.7
"Transformer.MDV201_6568ELB-1B"              1     5.8     0.0     0.0     0.0     0.0   100.4    73.6
"Transformer.MDV201_HN_2_870_C831-1C"        1     3.9     0.0     0.0     0.0     0.0   101.2    74.2
